Version 4
SHEET 1 2680 984
WIRE 736 -464 608 -464
WIRE 928 -464 816 -464
WIRE 608 -352 608 -464
WIRE 672 -352 608 -352
WIRE 784 -352 736 -352
WIRE 1264 -352 1184 -352
WIRE 1408 -352 1344 -352
WIRE 432 -256 320 -256
WIRE 480 -256 432 -256
WIRE 608 -256 608 -352
WIRE 608 -256 560 -256
WIRE 640 -256 608 -256
WIRE 784 -240 784 -352
WIRE 784 -240 704 -240
WIRE 832 -240 784 -240
WIRE 928 -240 928 -464
WIRE 928 -240 896 -240
WIRE 960 -240 928 -240
WIRE 1008 -240 960 -240
WIRE 1184 -240 1184 -352
WIRE 1184 -240 1088 -240
WIRE 1248 -240 1184 -240
WIRE 320 -224 320 -256
WIRE 640 -224 608 -224
WIRE 1408 -224 1408 -352
WIRE 1408 -224 1312 -224
WIRE 1456 -224 1408 -224
WIRE 1520 -224 1456 -224
WIRE 1248 -208 1216 -208
WIRE -16 -192 -16 -224
WIRE 144 -192 -16 -192
WIRE 608 -192 608 -224
WIRE 1216 -144 1216 -208
WIRE -16 -128 -16 -192
WIRE 144 -128 144 -192
WIRE 320 -128 320 -144
WIRE 432 -112 432 -256
WIRE 752 -112 432 -112
WIRE 976 -112 832 -112
WIRE 1072 -112 1056 -112
WIRE 1184 -112 1184 -240
WIRE 1184 -112 1072 -112
WIRE 1072 -64 1072 -112
WIRE 1072 -64 1008 -64
WIRE -16 -16 -16 -48
WIRE 144 -16 144 -64
WIRE 144 -16 -16 -16
WIRE 208 -16 144 -16
WIRE -16 16 -16 -16
WIRE 144 16 144 -16
WIRE -16 144 -16 96
WIRE 144 144 144 80
WIRE 144 144 -16 144
WIRE 800 144 736 144
WIRE 944 144 880 144
WIRE 1040 144 944 144
WIRE 1232 144 1136 144
WIRE -16 176 -16 144
WIRE 1104 288 1056 288
WIRE 1056 336 1056 288
WIRE 944 352 944 144
WIRE 1024 352 944 352
WIRE 736 368 736 144
WIRE 736 368 688 368
WIRE 1232 368 1232 144
WIRE 1232 368 1088 368
WIRE 1296 368 1232 368
WIRE 1024 384 944 384
WIRE 944 432 944 384
WIRE 1728 432 1584 432
WIRE 1920 432 1808 432
WIRE 1056 448 1056 400
WIRE 1104 448 1056 448
WIRE 2256 448 2112 448
WIRE 2448 448 2336 448
WIRE 1776 528 1728 528
WIRE 2304 544 2256 544
WIRE 1728 576 1728 528
WIRE 1376 592 1376 368
WIRE 1584 592 1584 432
WIRE 1584 592 1376 592
WIRE 1696 592 1584 592
WIRE 2256 592 2256 544
WIRE 736 608 736 368
WIRE 800 608 736 608
WIRE 944 608 880 608
WIRE 1040 608 944 608
WIRE 1232 608 1136 608
WIRE 1920 608 1920 432
WIRE 1920 608 1760 608
WIRE 1984 608 1920 608
WIRE 2112 608 2112 448
WIRE 2112 608 2064 608
WIRE 2224 608 2112 608
WIRE 1696 624 1664 624
WIRE 2448 624 2448 448
WIRE 2448 624 2288 624
WIRE 2480 624 2448 624
WIRE 2224 640 2192 640
WIRE 1664 656 1664 624
WIRE 2192 672 2192 640
WIRE 1728 688 1728 640
WIRE 1776 688 1728 688
WIRE 2256 704 2256 656
WIRE 2304 704 2256 704
WIRE 1104 752 1056 752
WIRE 1056 800 1056 752
WIRE 944 816 944 608
WIRE 1024 816 944 816
WIRE 1232 832 1232 608
WIRE 1232 832 1088 832
WIRE 1296 832 1232 832
WIRE 1376 832 1376 592
WIRE 1024 848 944 848
WIRE 944 896 944 848
WIRE 1056 912 1056 864
WIRE 1104 912 1056 912
FLAG 208 -16 0
FLAG -16 -224 V+
IOPIN -16 -224 BiDir
FLAG -16 176 V-
IOPIN -16 176 BiDir
FLAG 1056 448 V+
IOPIN 1056 448 BiDir
FLAG 1168 448 0
FLAG 1168 288 0
FLAG 1056 288 V-
IOPIN 1056 288 BiDir
FLAG 944 432 0
FLAG 2480 624 Vo
IOPIN 2480 624 Out
FLAG 320 -128 0
FLAG 608 -192 0
FLAG 672 -272 V+
IOPIN 672 -272 BiDir
FLAG 672 -208 V-
IOPIN 672 -208 BiDir
FLAG 1280 -256 V+
IOPIN 1280 -256 BiDir
FLAG 1280 -192 V-
IOPIN 1280 -192 BiDir
FLAG 1216 -144 0
FLAG 1520 -224 Vout
IOPIN 1520 -224 BiDir
FLAG 960 -240 Half
FLAG 1456 -224 Full
FLAG 736 -272 0
FLAG 736 -208 0
FLAG 1344 -256 0
FLAG 1344 -192 0
FLAG 1088 208 0
FLAG 1056 912 V+
IOPIN 1056 912 BiDir
FLAG 1168 912 0
FLAG 1168 752 0
FLAG 1056 752 V-
IOPIN 1056 752 BiDir
FLAG 944 896 0
FLAG 1088 672 0
FLAG 1728 528 V+
IOPIN 1728 528 BiDir
FLAG 1840 528 0
FLAG 1840 688 0
FLAG 1728 688 V-
IOPIN 1728 688 BiDir
FLAG 1664 656 0
FLAG 2256 544 V+
IOPIN 2256 544 BiDir
FLAG 2368 544 0
FLAG 2368 704 0
FLAG 2256 704 V-
IOPIN 2256 704 BiDir
FLAG 2192 672 0
FLAG 688 368 Vout
IOPIN 688 368 BiDir
SYMBOL voltage -16 -144 R0
SYMATTR InstName VCC1
SYMATTR Value 5
SYMBOL voltage -16 0 R0
SYMATTR InstName VEE1
SYMATTR Value 5
SYMBOL polcap 128 -128 R0
SYMATTR InstName Cbyp1
SYMATTR Value 10µ
SYMBOL polcap 128 16 R0
SYMATTR InstName Cbyp2
SYMATTR Value 10µ
SYMBOL ECE3161\\TL974 1056 368 M180
SYMATTR InstName U1
SYMBOL cap 1104 432 M90
WINDOW 0 0 32 VBottom 2
WINDOW 3 32 32 VTop 2
SYMATTR InstName C1
SYMATTR Value 100n
SYMBOL cap 1104 272 M90
WINDOW 0 0 32 VBottom 2
WINDOW 3 32 32 VTop 2
SYMATTR InstName C2
SYMATTR Value 100n
SYMBOL voltage 112 -528 R0
WINDOW 123 0 0 Left 0
WINDOW 39 0 0 Left 0
SYMATTR InstName V2
SYMATTR Value SINE(0 100m 1k)
SYMBOL ECE3161\\TL974 672 -240 R0
SYMATTR InstName U2
SYMBOL res 576 -272 R90
WINDOW 0 0 56 VBottom 2
WINDOW 3 32 56 VTop 2
SYMATTR InstName R2
SYMATTR Value 10k
SYMBOL diode 736 -368 R90
WINDOW 0 0 32 VBottom 2
WINDOW 3 32 32 VTop 2
SYMATTR InstName D2
SYMBOL diode 896 -256 R90
WINDOW 0 0 32 VBottom 2
WINDOW 3 32 32 VTop 2
SYMATTR InstName D3
SYMBOL res 832 -480 R90
WINDOW 0 0 56 VBottom 2
WINDOW 3 32 56 VTop 2
SYMATTR InstName R3
SYMATTR Value 10k
SYMBOL ECE3161\\TL974 1280 -224 R0
SYMATTR InstName U3
SYMBOL res 1360 -368 R90
WINDOW 0 0 56 VBottom 2
WINDOW 3 32 56 VTop 2
SYMATTR InstName R4
SYMATTR Value 10k
SYMBOL res 848 -128 R90
WINDOW 0 0 56 VBottom 2
WINDOW 3 32 56 VTop 2
SYMATTR InstName R5
SYMATTR Value 9.4k
SYMBOL res 1104 -256 R90
WINDOW 0 0 56 VBottom 2
WINDOW 3 32 56 VTop 2
SYMATTR InstName R6
SYMATTR Value 5k
SYMBOL ECE3161\\pot 1072 -128 R90
WINDOW 3 -16 -62 VRight 2
SYMATTR Value Rtot=1K wiper=.4
SYMATTR InstName U4
SYMBOL cap 736 -288 R90
WINDOW 0 0 32 VBottom 2
WINDOW 3 32 32 VTop 2
SYMATTR InstName C3
SYMATTR Value 100n
SYMBOL cap 736 -224 R90
WINDOW 0 0 32 VBottom 2
WINDOW 3 32 32 VTop 2
SYMATTR InstName C4
SYMATTR Value 100n
SYMBOL cap 1344 -272 R90
WINDOW 0 0 32 VBottom 2
WINDOW 3 32 32 VTop 2
SYMATTR InstName C5
SYMATTR Value 100n
SYMBOL cap 1344 -208 R90
WINDOW 0 0 32 VBottom 2
WINDOW 3 32 32 VTop 2
SYMATTR InstName C6
SYMATTR Value 100n
SYMBOL pnp 1040 208 R270
SYMATTR InstName Q2
SYMATTR Value BD136
SYMBOL res 896 128 R90
WINDOW 0 0 56 VBottom 2
WINDOW 3 32 56 VTop 2
SYMATTR InstName R1
SYMATTR Value 1Meg
SYMBOL ECE3161\\TL974 1056 832 M180
SYMATTR InstName U5
SYMBOL cap 1104 896 M90
WINDOW 0 0 32 VBottom 2
WINDOW 3 32 32 VTop 2
SYMATTR InstName C7
SYMATTR Value 100n
SYMBOL cap 1104 736 M90
WINDOW 0 0 32 VBottom 2
WINDOW 3 32 32 VTop 2
SYMATTR InstName C8
SYMATTR Value 100n
SYMBOL pnp 1040 672 R270
SYMATTR InstName Q1
SYMATTR Value BD136
SYMBOL res 896 592 R90
WINDOW 0 0 56 VBottom 2
WINDOW 3 32 56 VTop 2
SYMATTR InstName R7
SYMATTR Value 1Meg
SYMBOL res 1392 352 R90
WINDOW 0 0 56 VBottom 2
WINDOW 3 32 56 VTop 2
SYMATTR InstName R8
SYMATTR Value 10k
SYMBOL res 1392 816 R90
WINDOW 0 0 56 VBottom 2
WINDOW 3 32 56 VTop 2
SYMATTR InstName R9
SYMATTR Value 10k
SYMBOL ECE3161\\TL974 1728 608 R0
SYMATTR InstName U6
SYMBOL cap 1776 544 R270
WINDOW 0 32 32 VTop 2
WINDOW 3 0 32 VBottom 2
SYMATTR InstName C9
SYMATTR Value 100n
SYMBOL cap 1776 704 R270
WINDOW 0 32 32 VTop 2
WINDOW 3 0 32 VBottom 2
SYMATTR InstName C10
SYMATTR Value 100n
SYMBOL res 1824 416 R90
WINDOW 0 0 56 VBottom 2
WINDOW 3 32 56 VTop 2
SYMATTR InstName R10
SYMATTR Value 10k
SYMBOL ECE3161\\TL974 2256 624 R0
SYMATTR InstName U7
SYMBOL cap 2304 560 R270
WINDOW 0 32 32 VTop 2
WINDOW 3 0 32 VBottom 2
SYMATTR InstName C11
SYMATTR Value 100n
SYMBOL cap 2304 720 R270
WINDOW 0 32 32 VTop 2
WINDOW 3 0 32 VBottom 2
SYMATTR InstName C12
SYMATTR Value 100n
SYMBOL res 2352 432 R90
WINDOW 0 0 56 VBottom 2
WINDOW 3 32 56 VTop 2
SYMATTR InstName R11
SYMATTR Value 10k
SYMBOL res 2080 592 R90
WINDOW 0 0 56 VBottom 2
WINDOW 3 32 56 VTop 2
SYMATTR InstName R13
SYMATTR Value 10k
SYMBOL voltage 320 -240 R0
WINDOW 123 0 0 Left 0
WINDOW 39 0 0 Left 0
SYMATTR InstName V1
SYMATTR Value 100m
TEXT 56 216 Left 2 !.tran 10m
TEXT 640 -40 Left 2 ;Precision full wave rectifier
TEXT 56 248 Left 2 !.inc pot.sub
TEXT 56 280 Left 2 !.inc BD135.mod
TEXT 56 312 Left 2 !.inc BD136.mod
TEXT 56 344 Left 2 !.meas TRAN ave_out AVG V(Vo) FROM 1m TO 5m
