Version 4
SHEET 1 880 680
WIRE -256 -1248 -384 -1248
WIRE -64 -1248 -176 -1248
WIRE -384 -1136 -384 -1248
WIRE -320 -1136 -384 -1136
WIRE -208 -1136 -256 -1136
WIRE 272 -1136 192 -1136
WIRE 416 -1136 352 -1136
WIRE -560 -1040 -672 -1040
WIRE -512 -1040 -560 -1040
WIRE -384 -1040 -384 -1136
WIRE -384 -1040 -432 -1040
WIRE -352 -1040 -384 -1040
WIRE -208 -1024 -208 -1136
WIRE -208 -1024 -288 -1024
WIRE -160 -1024 -208 -1024
WIRE -64 -1024 -64 -1248
WIRE -64 -1024 -96 -1024
WIRE -32 -1024 -64 -1024
WIRE 16 -1024 -32 -1024
WIRE 192 -1024 192 -1136
WIRE 192 -1024 96 -1024
WIRE 256 -1024 192 -1024
WIRE -672 -1008 -672 -1040
WIRE -352 -1008 -384 -1008
WIRE 416 -1008 416 -1136
WIRE 416 -1008 320 -1008
WIRE 464 -1008 416 -1008
WIRE 528 -1008 464 -1008
WIRE 256 -992 224 -992
WIRE -1008 -976 -1008 -1008
WIRE -848 -976 -1008 -976
WIRE -384 -976 -384 -1008
WIRE 224 -928 224 -992
WIRE -1008 -912 -1008 -976
WIRE -848 -912 -848 -976
WIRE -672 -912 -672 -928
WIRE -560 -896 -560 -1040
WIRE -240 -896 -560 -896
WIRE -16 -896 -160 -896
WIRE 80 -896 64 -896
WIRE 192 -896 192 -1024
WIRE 192 -896 80 -896
WIRE 80 -848 80 -896
WIRE 80 -848 16 -848
WIRE -1008 -800 -1008 -832
WIRE -848 -800 -848 -848
WIRE -848 -800 -1008 -800
WIRE -784 -800 -848 -800
WIRE -1008 -768 -1008 -800
WIRE -848 -768 -848 -800
WIRE -144 -656 -208 -656
WIRE 0 -656 -64 -656
WIRE 96 -656 0 -656
WIRE 288 -656 192 -656
WIRE -1008 -640 -1008 -688
WIRE -848 -640 -848 -704
WIRE -848 -640 -1008 -640
WIRE -1008 -608 -1008 -640
WIRE 160 -512 112 -512
WIRE 112 -464 112 -512
WIRE 0 -448 0 -656
WIRE 80 -448 0 -448
WIRE 288 -432 288 -656
WIRE 288 -432 144 -432
WIRE 352 -432 288 -432
WIRE 80 -416 0 -416
WIRE 0 -368 0 -416
WIRE 112 -352 112 -400
WIRE 160 -352 112 -352
FLAG 112 -512 V+
IOPIN 112 -512 BiDir
FLAG 224 -352 0
FLAG 224 -512 0
FLAG 112 -352 V-
IOPIN 112 -352 BiDir
FLAG 0 -368 0
FLAG 352 -432 Vo
IOPIN 352 -432 Out
FLAG -208 -656 Vout
IOPIN -208 -656 BiDir
FLAG 144 -592 0
FLAG -784 -800 0
FLAG -1008 -1008 V+
IOPIN -1008 -1008 BiDir
FLAG -1008 -608 V-
IOPIN -1008 -608 BiDir
FLAG -672 -912 0
FLAG -384 -976 0
FLAG -320 -1056 V+
IOPIN -320 -1056 BiDir
FLAG -320 -992 V-
IOPIN -320 -992 BiDir
FLAG 288 -1040 V+
IOPIN 288 -1040 BiDir
FLAG 288 -976 V-
IOPIN 288 -976 BiDir
FLAG 224 -928 0
FLAG 528 -1008 Vout
IOPIN 528 -1008 BiDir
FLAG -32 -1024 Half
FLAG 464 -1008 Full
FLAG -256 -1056 0
FLAG -256 -992 0
FLAG 352 -1040 0
FLAG 352 -976 0
SYMBOL ECE3161\\TL974 112 -432 R0
SYMATTR InstName U1
SYMBOL cap 160 -368 M90
WINDOW 0 0 32 VBottom 2
WINDOW 3 32 32 VTop 2
SYMATTR InstName C1
SYMATTR Value 100n
SYMBOL cap 160 -528 M90
WINDOW 0 0 32 VBottom 2
WINDOW 3 32 32 VTop 2
SYMATTR InstName C2
SYMATTR Value 100n
SYMBOL res -48 -672 R90
WINDOW 0 0 56 VBottom 2
WINDOW 3 32 56 VTop 2
SYMATTR InstName R1
SYMATTR Value 1Meg
SYMBOL npn 96 -592 R270
SYMATTR InstName Q1
SYMATTR Value BD135
SYMBOL voltage -1008 -928 R0
SYMATTR InstName VCC1
SYMATTR Value 5
SYMBOL voltage -1008 -784 R0
SYMATTR InstName VEE1
SYMATTR Value 5
SYMBOL polcap -864 -912 R0
SYMATTR InstName Cbyp1
SYMATTR Value 10µ
SYMBOL polcap -864 -768 R0
SYMATTR InstName Cbyp2
SYMATTR Value 10µ
SYMBOL voltage -672 -1024 R0
WINDOW 123 0 0 Left 0
WINDOW 39 0 0 Left 0
SYMATTR InstName V1
SYMATTR Value SINE(0 100m 1k)
SYMBOL ECE3161\\TL974 -320 -1024 R0
SYMATTR InstName U3
SYMBOL res -416 -1056 R90
WINDOW 0 0 56 VBottom 2
WINDOW 3 32 56 VTop 2
SYMATTR InstName R2
SYMATTR Value 10k
SYMBOL diode -256 -1152 R90
WINDOW 0 0 32 VBottom 2
WINDOW 3 32 32 VTop 2
SYMATTR InstName D1
SYMBOL diode -96 -1040 R90
WINDOW 0 0 32 VBottom 2
WINDOW 3 32 32 VTop 2
SYMATTR InstName D2
SYMBOL res -160 -1264 R90
WINDOW 0 0 56 VBottom 2
WINDOW 3 32 56 VTop 2
SYMATTR InstName R3
SYMATTR Value 10k
SYMBOL ECE3161\\TL974 288 -1008 R0
SYMATTR InstName U4
SYMBOL res 368 -1152 R90
WINDOW 0 0 56 VBottom 2
WINDOW 3 32 56 VTop 2
SYMATTR InstName R4
SYMATTR Value 10k
SYMBOL res -144 -912 R90
WINDOW 0 0 56 VBottom 2
WINDOW 3 32 56 VTop 2
SYMATTR InstName R5
SYMATTR Value 9.4k
SYMBOL res 112 -1040 R90
WINDOW 0 0 56 VBottom 2
WINDOW 3 32 56 VTop 2
SYMATTR InstName R6
SYMATTR Value 5k
SYMBOL ECE3161\\pot 80 -912 R90
WINDOW 3 -16 -62 VRight 2
SYMATTR InstName U5
SYMATTR Value Rtot=1K wiper=.4
SYMBOL cap -256 -1072 R90
WINDOW 0 0 32 VBottom 2
WINDOW 3 32 32 VTop 2
SYMATTR InstName C5
SYMATTR Value 100n
SYMBOL cap -256 -1008 R90
WINDOW 0 0 32 VBottom 2
WINDOW 3 32 32 VTop 2
SYMATTR InstName C6
SYMATTR Value 100n
SYMBOL cap 352 -1056 R90
WINDOW 0 0 32 VBottom 2
WINDOW 3 32 32 VTop 2
SYMATTR InstName C7
SYMATTR Value 100n
SYMBOL cap 352 -992 R90
WINDOW 0 0 32 VBottom 2
WINDOW 3 32 32 VTop 2
SYMATTR InstName C8
SYMATTR Value 100n
TEXT -936 -568 Left 2 !.tran 10m
TEXT -352 -824 Left 2 ;Precision full wave rectifier
TEXT -936 -536 Left 2 !.inc pot.sub
TEXT -936 -504 Left 2 !.inc BD135.mod
TEXT -936 -472 Left 2 !.inc BD136.mod
TEXT -936 -440 Left 2 !.meas TRAN ave_out AVG V(Vo) FROM 1m TO 5m
