Version 4
SHEET 1 2404 840
WIRE 336 -304 208 -304
WIRE 528 -304 416 -304
WIRE 208 -192 208 -304
WIRE 272 -192 208 -192
WIRE 384 -192 336 -192
WIRE 864 -192 784 -192
WIRE 1008 -192 944 -192
WIRE -496 -112 -496 -144
WIRE -336 -112 -496 -112
WIRE 32 -96 -80 -96
WIRE 80 -96 32 -96
WIRE 208 -96 208 -192
WIRE 208 -96 160 -96
WIRE 240 -96 208 -96
WIRE 384 -80 384 -192
WIRE 384 -80 304 -80
WIRE 432 -80 384 -80
WIRE 528 -80 528 -304
WIRE 528 -80 496 -80
WIRE 560 -80 528 -80
WIRE 608 -80 560 -80
WIRE 784 -80 784 -192
WIRE 784 -80 688 -80
WIRE 848 -80 784 -80
WIRE -80 -64 -80 -96
WIRE 240 -64 208 -64
WIRE 1008 -64 1008 -192
WIRE 1008 -64 912 -64
WIRE 1056 -64 1008 -64
WIRE 1120 -64 1056 -64
WIRE -496 -48 -496 -112
WIRE -336 -48 -336 -112
WIRE 848 -48 816 -48
WIRE 208 -32 208 -64
WIRE 816 16 816 -48
WIRE -80 32 -80 16
WIRE 32 48 32 -96
WIRE 352 48 32 48
WIRE 576 48 432 48
WIRE 672 48 656 48
WIRE 784 48 784 -80
WIRE 784 48 672 48
WIRE -496 64 -496 32
WIRE -336 64 -336 16
WIRE -336 64 -496 64
WIRE -272 64 -336 64
WIRE -496 96 -496 64
WIRE -336 96 -336 64
WIRE 672 96 672 48
WIRE 672 96 608 96
WIRE -496 224 -496 176
WIRE -336 224 -336 160
WIRE -336 224 -496 224
WIRE -496 256 -496 224
WIRE 272 432 144 432
WIRE 464 432 352 432
WIRE 144 544 144 432
WIRE 208 544 144 544
WIRE 320 544 272 544
WIRE 0 640 -80 640
WIRE 144 640 144 544
WIRE 144 640 80 640
WIRE 176 640 144 640
WIRE 320 656 320 544
WIRE 320 656 240 656
WIRE 368 656 320 656
WIRE 464 656 464 432
WIRE 464 656 432 656
WIRE 512 656 464 656
WIRE -80 672 -80 640
WIRE 176 672 144 672
WIRE 144 704 144 672
WIRE 464 704 464 656
WIRE -80 768 -80 752
WIRE 464 816 464 784
FLAG 144 704 0
FLAG 512 656 Vout
IOPIN 512 656 Out
FLAG -80 768 0
FLAG -272 64 0
FLAG -496 -144 V+
IOPIN -496 -144 BiDir
FLAG -496 256 V-
IOPIN -496 256 BiDir
FLAG 208 624 V+
IOPIN 208 624 BiDir
FLAG 208 688 V-
IOPIN 208 688 BiDir
FLAG 464 816 0
FLAG -80 32 0
FLAG 208 -32 0
FLAG 272 -112 V+
IOPIN 272 -112 BiDir
FLAG 272 -48 V-
IOPIN 272 -48 BiDir
FLAG 880 -96 V+
IOPIN 880 -96 BiDir
FLAG 880 -32 V-
IOPIN 880 -32 BiDir
FLAG 816 16 0
FLAG 1120 -64 Vout
IOPIN 1120 -64 Out
FLAG 560 -80 Half
FLAG 1056 -64 Full
FLAG 336 -112 0
FLAG 336 -48 0
FLAG 944 -96 0
FLAG 944 -32 0
SYMBOL ECE3161\\TL974 208 656 R0
SYMATTR InstName U1
SYMBOL res 96 624 R90
WINDOW 0 0 56 VBottom 2
WINDOW 3 32 56 VTop 2
SYMATTR InstName R1
SYMATTR Value 10k
SYMBOL diode 208 560 R270
WINDOW 0 32 32 VTop 2
WINDOW 3 0 32 VBottom 2
SYMATTR InstName D1
SYMBOL diode 368 672 R270
WINDOW 0 32 32 VTop 2
WINDOW 3 0 32 VBottom 2
SYMATTR InstName D2
SYMBOL res 368 416 R90
WINDOW 0 0 56 VBottom 2
WINDOW 3 32 56 VTop 2
SYMATTR InstName R2
SYMATTR Value 10k
SYMBOL voltage -80 656 R0
WINDOW 123 0 0 Left 0
WINDOW 39 0 0 Left 0
SYMATTR InstName V1
SYMATTR Value SINE(0 100m 1k)
SYMBOL voltage -496 -64 R0
SYMATTR InstName VCC1
SYMATTR Value 5
SYMBOL voltage -496 80 R0
SYMATTR InstName VEE1
SYMATTR Value 5
SYMBOL polcap -352 -48 R0
SYMATTR InstName Cbyp1
SYMATTR Value 10µ
SYMBOL polcap -352 96 R0
SYMATTR InstName Cbyp2
SYMATTR Value 10µ
SYMBOL res 448 688 R0
SYMATTR InstName RLoad
SYMATTR Value 10k
SYMBOL voltage -80 -80 R0
WINDOW 123 0 0 Left 0
WINDOW 39 0 0 Left 0
SYMATTR InstName V2
SYMATTR Value SINE(0 100m 1k)
SYMBOL ECE3161\\TL974 272 -80 R0
SYMATTR InstName U2
SYMBOL res 176 -112 R90
WINDOW 0 0 56 VBottom 2
WINDOW 3 32 56 VTop 2
SYMATTR InstName R3
SYMATTR Value 10k
SYMBOL diode 336 -208 R90
WINDOW 0 0 32 VBottom 2
WINDOW 3 32 32 VTop 2
SYMATTR InstName D3
SYMBOL diode 496 -96 R90
WINDOW 0 0 32 VBottom 2
WINDOW 3 32 32 VTop 2
SYMATTR InstName D4
SYMBOL res 432 -320 R90
WINDOW 0 0 56 VBottom 2
WINDOW 3 32 56 VTop 2
SYMATTR InstName R4
SYMATTR Value 10k
SYMBOL ECE3161\\TL974 880 -64 R0
SYMATTR InstName U3
SYMBOL res 960 -208 R90
WINDOW 0 0 56 VBottom 2
WINDOW 3 32 56 VTop 2
SYMATTR InstName R6
SYMATTR Value 10k
SYMBOL res 448 32 R90
WINDOW 0 0 56 VBottom 2
WINDOW 3 32 56 VTop 2
SYMATTR InstName R7
SYMATTR Value 9.4k
SYMBOL res 704 -96 R90
WINDOW 0 0 56 VBottom 2
WINDOW 3 32 56 VTop 2
SYMATTR InstName R13
SYMATTR Value 5k
SYMBOL ECE3161\\pot 672 32 R90
SYMATTR InstName U4
SYMATTR Value Rtot=1K wiper=.4
SYMBOL cap 336 -128 R90
WINDOW 0 0 32 VBottom 2
WINDOW 3 32 32 VTop 2
SYMATTR InstName C1
SYMATTR Value 100n
SYMBOL cap 336 -64 R90
WINDOW 0 0 32 VBottom 2
WINDOW 3 32 32 VTop 2
SYMATTR InstName C2
SYMATTR Value 100n
SYMBOL cap 944 -112 R90
WINDOW 0 0 32 VBottom 2
WINDOW 3 32 32 VTop 2
SYMATTR InstName C3
SYMATTR Value 100n
SYMBOL cap 944 -48 R90
WINDOW 0 0 32 VBottom 2
WINDOW 3 32 32 VTop 2
SYMATTR InstName C4
SYMATTR Value 100n
TEXT -80 208 Left 2 !.tran 10m
TEXT 48 824 Left 2 ;Precision half wave rectifier
TEXT 240 120 Left 2 ;Precision full wave rectifier
TEXT -80 240 Left 2 !.inc pot.sub
TEXT 200 -440 Left 2 ;Stage 1 rectifies positive half of input\nthrough unity gain inverting amplifier.\nOutput is now negative half wave.
TEXT 776 -360 Left 2 ;Stage 2 sums original signal with 2x Stage 1\noutput to overwrite positive half. Signal goes\nthrough inverting amplifier to invert back to\npositive voltages. Check working out for specifics.
TEXT 720 88 Left 2 ;Increasing Pot resistance will...\n- Decrease negative half peak\n- Increase positive half peak
TEXT 720 208 Left 2 ;Current sim value R7 = 4.7*2 = 9.4k and Pot = 400\nTrial & error, gives best balanced peaks for\npositive and negative halves. Negative half trough\noccurs around -7.5mV for any Pot resistance value.
