Version 4
SHEET 1 2052 680
WIRE 640 -384 544 -384
WIRE 640 -352 640 -384
WIRE 544 -304 544 -384
WIRE 592 -304 544 -304
WIRE 928 -304 672 -304
WIRE 1184 -304 1008 -304
WIRE 1536 -256 1456 -256
WIRE 848 -208 704 -208
WIRE 1040 -208 928 -208
WIRE 1072 -208 1040 -208
WIRE 1184 -208 1184 -304
WIRE 1184 -208 1152 -208
WIRE 1264 -208 1184 -208
WIRE 1408 -208 1344 -208
WIRE 1536 -208 1536 -256
WIRE 1536 -208 1488 -208
WIRE 1584 -208 1536 -208
WIRE 1040 -192 1040 -208
WIRE 0 -160 0 -192
WIRE 160 -160 0 -160
WIRE 384 -112 368 -112
WIRE 496 -112 464 -112
WIRE 544 -112 544 -304
WIRE 544 -112 496 -112
WIRE 704 -112 704 -208
WIRE 768 -112 704 -112
WIRE 928 -112 848 -112
WIRE 1040 -112 1040 -128
WIRE 1040 -112 992 -112
WIRE 0 -96 0 -160
WIRE 160 -96 160 -160
WIRE 368 -80 368 -112
WIRE 1344 -80 1328 -80
WIRE 1328 -32 1328 -80
WIRE 704 -16 704 -112
WIRE 848 -16 704 -16
WIRE 1040 -16 1040 -112
WIRE 1040 -16 912 -16
WIRE 1184 -16 1184 -208
WIRE 1296 -16 1184 -16
WIRE 1536 0 1536 -208
WIRE 1536 0 1360 0
WIRE 0 16 0 -16
WIRE 160 16 160 -32
WIRE 160 16 0 16
WIRE 224 16 160 16
WIRE 1296 16 1264 16
WIRE 544 32 544 -112
WIRE 0 48 0 16
WIRE 160 48 160 16
WIRE 1264 48 1264 16
WIRE 1328 80 1328 32
WIRE 1344 80 1328 80
WIRE 816 96 800 96
WIRE 800 144 800 96
WIRE 544 160 544 112
WIRE 592 160 544 160
WIRE 704 160 704 -16
WIRE 704 160 672 160
WIRE 768 160 704 160
WIRE 0 176 0 128
WIRE 160 176 160 112
WIRE 160 176 0 176
WIRE 1040 176 1040 -16
WIRE 1040 176 832 176
WIRE 768 192 736 192
WIRE 0 208 0 176
WIRE 736 224 736 192
WIRE 800 256 800 208
WIRE 816 256 800 256
FLAG 224 16 0
FLAG 0 -192 V+
IOPIN 0 -192 BiDir
FLAG 0 208 V-
IOPIN 0 208 BiDir
FLAG 800 96 V+
IOPIN 800 96 BiDir
FLAG 800 256 V-
IOPIN 800 256 BiDir
FLAG 880 256 0
FLAG 880 96 0
FLAG 736 224 0
FLAG 368 -80 0
FLAG 1328 -80 V+
IOPIN 1328 -80 BiDir
FLAG 1328 80 V-
IOPIN 1328 80 BiDir
FLAG 1408 80 0
FLAG 1408 -80 0
FLAG 1264 48 0
FLAG 1584 -208 Vout
IOPIN 1584 -208 Out
FLAG 496 -112 Vin
SYMBOL voltage 0 -112 R0
SYMATTR InstName VCC1
SYMATTR Value 5
SYMBOL voltage 0 32 R0
SYMATTR InstName VEE1
SYMATTR Value 5
SYMBOL polcap 144 -96 R0
SYMATTR InstName Cbyp1
SYMATTR Value 10µ
SYMBOL polcap 144 48 R0
SYMATTR InstName Cbyp2
SYMATTR Value 10µ
SYMBOL ECE3161\\TL974 800 176 R0
SYMATTR InstName U1
SYMBOL cap 880 240 R90
WINDOW 0 0 32 VBottom 2
WINDOW 3 32 32 VTop 2
SYMATTR InstName C1
SYMATTR Value 0.1µ
SYMBOL cap 880 80 R90
WINDOW 0 0 32 VBottom 2
WINDOW 3 32 32 VTop 2
SYMATTR InstName C2
SYMATTR Value 0.1µ
SYMBOL res 688 144 R90
WINDOW 0 0 56 VBottom 2
WINDOW 3 32 56 VTop 2
SYMATTR InstName R1
SYMATTR Value 4.99k
SYMBOL res 560 128 R180
WINDOW 0 36 76 Left 2
WINDOW 3 36 40 Left 2
SYMATTR InstName R2
SYMATTR Value 100
SYMBOL ECE3161\\pot 576 -288 R270
SYMATTR InstName U2
SYMATTR Value Rtot=1K wiper=.0
SYMBOL voltage 480 -112 R90
WINDOW 0 -32 56 VBottom 2
WINDOW 3 32 56 VTop 2
WINDOW 123 0 0 Left 0
WINDOW 39 0 0 Left 0
SYMATTR InstName V1
SYMATTR Value SINE(0 100m 1k)
SYMBOL cap 912 -32 R90
WINDOW 0 0 32 VBottom 2
WINDOW 3 32 32 VTop 2
SYMATTR InstName C3
SYMATTR Value 5pf
SYMBOL res 864 -128 R90
WINDOW 0 0 56 VBottom 2
WINDOW 3 32 56 VTop 2
SYMATTR InstName R3
SYMATTR Value 4.99k
SYMBOL res 944 -224 R90
WINDOW 0 0 56 VBottom 2
WINDOW 3 32 56 VTop 2
SYMATTR InstName R4
SYMATTR Value 4.99k
SYMBOL diode 992 -128 R90
WINDOW 0 0 32 VBottom 2
WINDOW 3 32 32 VTop 2
SYMATTR InstName D1
SYMBOL diode 1024 -192 R0
SYMATTR InstName D2
SYMBOL res 1168 -224 R90
WINDOW 0 0 56 VBottom 2
WINDOW 3 32 56 VTop 2
SYMATTR InstName R5
SYMATTR Value 8.8k
SYMBOL res 1024 -320 R90
WINDOW 0 0 56 VBottom 2
WINDOW 3 32 56 VTop 2
SYMATTR InstName R6
SYMATTR Value 18k
SYMBOL ECE3161\\TL974 1328 0 R0
SYMATTR InstName U3
SYMBOL cap 1408 64 R90
WINDOW 0 0 32 VBottom 2
WINDOW 3 32 32 VTop 2
SYMATTR InstName C4
SYMATTR Value 0.1µ
SYMBOL cap 1408 -96 R90
WINDOW 0 0 32 VBottom 2
WINDOW 3 32 32 VTop 2
SYMATTR InstName C5
SYMATTR Value 0.1µ
SYMBOL res 1360 -224 R90
WINDOW 0 0 56 VBottom 2
WINDOW 3 32 56 VTop 2
SYMATTR InstName R7
SYMATTR Value 10k
SYMBOL ECE3161\\pot 1392 -192 R270
SYMATTR InstName U4
SYMATTR Value Rtot=10K wiper=.0
TEXT 528 400 Left 2 !.inc pot.sub
TEXT 528 376 Left 2 !.tran 10m
TEXT 1000 280 Left 2 ;Precision full wave rectifier V3
